# avogadro generated ORCA file
# C6H5NO2 | Single Point | revPBE/def2-TZVP
# 
! SP revPBE def2-TZVP 

%maxcore 16384

%pal
   nprocs 1
end
%output
Print[P_Basis] 2
Print[P_MOs] 1
end 

* xyz 0 1
   C     -3.082958    1.086937   -0.000083
   C     -3.059231   -0.312048   -0.000095
   C     -1.910543    1.850563   -0.000102
   C     -0.679123    1.187049   -0.000137
   C     -0.632560   -0.214569   -0.000146
   C     -1.819953   -0.960747   -0.000129
   H     -1.976857    2.937567   -0.000102
   H      0.245563    1.767016   -0.000160
   H      0.331713   -0.726862   -0.000170
   H     -1.782815   -2.051636   -0.000146
   H     -3.997043   -0.865661   -0.000088
   N     -4.402440    1.787920   -0.000059
   O     -4.393591    3.024226   -0.000087
   O     -5.421942    1.088482   -0.000088
*


