# avogadro generated ORCA file
# C6H5NO2 | Geometry Optimization | revPBE/def2-TZVP
# 
! Opt revPBE def2-TZVP 

%maxcore 16384

%pal
   nprocs 1
end

* xyz 0 1
   C     -3.101753    1.097412   -0.000098
   C     -3.059846   -0.303528   -0.000105
   C     -1.917411    1.846871   -0.000114
   C     -0.687648    1.186150   -0.000138
   C     -0.642586   -0.209314   -0.000145
   C     -1.824172   -0.952916   -0.000128
   H     -1.935465    2.934717   -0.000109
   H      0.237300    1.758634   -0.000152
   H      0.318179   -0.719980   -0.000165
   H     -1.781391   -2.039949   -0.000134
   H     -3.971462   -0.897386   -0.000092
   N     -4.398501    1.785497   -0.000076
   O     -4.394401    3.025034   -0.000058
   O     -5.422625    1.086995   -0.000077
*


