14
Coordinates from ORCA-job nitrobenzene E -436.816950717179
  C      -3.101753      1.097412     -0.000098
  C      -3.059846     -0.303528     -0.000105
  C      -1.917411      1.846871     -0.000114
  C      -0.687648      1.186150     -0.000138
  C      -0.642586     -0.209314     -0.000145
  C      -1.824172     -0.952916     -0.000128
  H      -1.935465      2.934717     -0.000109
  H       0.237300      1.758634     -0.000152
  H       0.318179     -0.719980     -0.000165
  H      -1.781391     -2.039949     -0.000134
  H      -3.971462     -0.897386     -0.000092
  N      -4.398501      1.785497     -0.000076
  O      -4.394401      3.025034     -0.000058
  O      -5.422625      1.086995     -0.000077
14
Coordinates from ORCA-job nitrobenzene E -436.817459754463
  C      -3.095854      1.093933     -0.000099
  C      -3.060244     -0.306438     -0.000106
  C      -1.915640      1.848445     -0.000115
  C      -0.683397      1.187429     -0.000138
  C      -0.635725     -0.212896     -0.000145
  C      -1.822674     -0.957385     -0.000129
  H      -1.949934      2.937011     -0.000109
  H       0.242013      1.765609     -0.000151
  H       0.328789     -0.725352     -0.000163
  H      -1.783949     -2.047888     -0.000134
  H      -3.981441     -0.887406     -0.000093
  N      -4.402116      1.787629     -0.000076
  O      -4.396442      3.026205     -0.000058
  O      -5.425167      1.089343     -0.000074
14
Coordinates from ORCA-job nitrobenzene E -436.817717353716
  C      -3.086185      1.088537     -0.000098
  C      -3.059726     -0.310283     -0.000105
  C      -1.912432      1.849875     -0.000114
  C      -0.679481      1.187675     -0.000138
  C      -0.630272     -0.215753     -0.000146
  C      -1.820591     -0.960893     -0.000129
  H      -1.969946      2.937653     -0.000107
  H       0.244473      1.770054     -0.000151
  H       0.334830     -0.728395     -0.000164
  H      -1.785807     -2.052500     -0.000135
  H      -3.993226     -0.871688     -0.000093
  N      -4.403908      1.788760     -0.000071
  O      -4.395378      3.025481     -0.000065
  O      -5.424132      1.089713     -0.000074
14
Coordinates from ORCA-job nitrobenzene E -436.817739006680
  C      -3.083583      1.087196     -0.000117
  C      -3.059303     -0.311408     -0.000118
  C      -1.911195      1.850194     -0.000126
  C      -0.679120      1.187174     -0.000137
  C      -0.630877     -0.215447     -0.000138
  C      -1.820016     -0.960864     -0.000129
  H      -1.974640      2.937465     -0.000124
  H       0.244710      1.768983     -0.000145
  H       0.333611     -0.727803     -0.000147
  H      -1.784836     -2.052064     -0.000129
  H      -3.995716     -0.867588     -0.000110
  N      -4.403501      1.788529     -0.000106
  O      -4.394401      3.024787     -0.000029
  O      -5.422915      1.089085     -0.000035
14
Coordinates from ORCA-job nitrobenzene E -436.817743252332
  C      -3.082809      1.086840      0.000069
  C      -3.059159     -0.311927     -0.000002
  C      -1.910615      1.850421     -0.000010
  C      -0.679151      1.186903     -0.000145
  C      -0.632004     -0.214863     -0.000209
  C      -1.819843     -0.960645     -0.000137
  H      -1.976285      2.937458      0.000045
  H       0.245062      1.767654     -0.000202
  H       0.332207     -0.727112     -0.000316
  H      -1.783610     -2.051580     -0.000186
  H      -3.996636     -0.866099      0.000058
  N      -4.402929      1.788189      0.000234
  O      -4.393818      3.024372     -0.000392
  O      -5.422190      1.088627     -0.000397
14
Coordinates from ORCA-job nitrobenzene E -436.817737966544
  C      -3.082663      1.086792     -0.001523
  C      -3.059159     -0.312164     -0.001009
  C      -1.910388      1.850583     -0.001016
  C      -0.679170      1.186875     -0.000083
  C      -0.632743     -0.214477      0.000395
  C      -1.819845     -0.960598     -0.000076
  H      -1.977051      2.937526     -0.001396
  H       0.245439      1.766828      0.000288
  H       0.331415     -0.726718      0.001146
  H      -1.782748     -2.051419      0.000299
  H      -3.997119     -0.865446     -0.001384
  N      -4.402469      1.787928     -0.002569
  O      -4.393485      3.024142      0.002662
  O      -5.421796      1.088385      0.002674
14
Coordinates from ORCA-job nitrobenzene E -436.817744012694
  C      -3.082896      1.086906     -0.000171
  C      -3.059212     -0.312058     -0.000165
  C      -1.910521      1.850556     -0.000173
  C      -0.679153      1.186976     -0.000145
  C      -0.632572     -0.214565     -0.000122
  C      -1.819911     -0.960679     -0.000137
  H      -1.976743      2.937553     -0.000166
  H       0.245460      1.767034     -0.000127
  H       0.331674     -0.726844     -0.000086
  H      -1.782891     -2.051560     -0.000112
  H      -3.996967     -0.865744     -0.000153
  N      -4.402510      1.787957     -0.000071
  O      -4.393597      3.024228      0.000020
  O      -5.421945      1.088475      0.000018
14
Coordinates from ORCA-job nitrobenzene E -436.817744096219
  C      -3.082959      1.086937     -0.000083
  C      -3.059231     -0.312048     -0.000095
  C      -1.910543      1.850563     -0.000102
  C      -0.679123      1.187049     -0.000137
  C      -0.632561     -0.214569     -0.000146
  C      -1.819953     -0.960747     -0.000129
  H      -1.976857      2.937567     -0.000102
  H       0.245563      1.767016     -0.000160
  H       0.331713     -0.726862     -0.000170
  H      -1.782816     -2.051636     -0.000146
  H      -3.997043     -0.865662     -0.000088
  N      -4.402440      1.787921     -0.000059
  O      -4.393591      3.024225     -0.000087
  O      -5.421942      1.088482     -0.000088
