14
Coordinates from ORCA-job nitrobenzene E -436.817744096219
  C          -3.08295852264147      1.08693696557912     -0.00008314398133
  C          -3.05923071074646     -0.31204779780429     -0.00009463766212
  C          -1.91054281171907      1.85056339627074     -0.00010236776458
  C          -0.67912309066775      1.18704873745688     -0.00013689644212
  C          -0.63256064991931     -0.21456926547950     -0.00014570396060
  C          -1.81995324516757     -0.96074692939963     -0.00012888884333
  H          -1.97685664622473      2.93756732753266     -0.00010150648392
  H           0.24556261263353      1.76701595687632     -0.00016005008695
  H           0.33171305459788     -0.72686174993415     -0.00017047676992
  H          -1.78281564008579     -2.05163597543389     -0.00014562941254
  H          -3.99704271957491     -0.86566167809594     -0.00008799477591
  N          -4.40244022960700      1.78792063080070     -0.00005928967281
  O          -4.39359133970416      3.02422537512189     -0.00008654030672
  O          -5.42194206117318      1.08848200650908     -0.00008787383715
